egret/models/tests/transmission_test_instances/dcopf_solution_files/hvdc_test_case3_dcopf_solution.json
{"elements": {"bus": {"1": {"matpower_bustype": "ref", "area": 1.0, "vm": 1.0, "va": 0.0, "base_kv": 240.0, "zone": 1.0, "v_min": 0.9, "v_max": 1.1, "pl": 110.00000000000001, "lmp": 4.999999999727942}, "2": {"matpower_bustype": "PV", "area": 1.0, "vm": 1.0, "va": -0.990000009840651, "base_kv": 240.0, "zone": 1.0, "v_min": 0.9, "v_max": 1.1, "pl": 110.00000000000001, "lmp": 1.199999999960838}, "3": {"matpower_bustype": "PV", "area": 1.0, "vm": 1.0, "va": 0.2789999938204425, "base_kv": 240.0, "zone": 1.0, "v_min": 0.9, "v_max": 1.1, "pl": 95.0, "lmp": 4.999999999732397}}, "load": {"load_1": {"in_service": true, "p_load": 110.00000000000001, "q_load": 40.0, "bus": "1"}, "load_2": {"in_service": true, "p_load": 110.00000000000001, "q_load": 40.0, "bus": "2"}, "load_3": {"in_service": true, "p_load": 95.0, "q_load": 50.0, "bus": "3"}}, "generator": {"1": {"bus": "1", "pg": 44.99999790989154, "qg": 0.0, "vg": 1.0, "mbase": 100.0, "in_service": true, "p_min": 0.0, "p_max": 2000.0, "q_min": -1000.0, "q_max": 1000.0, "generator_type": "thermal", "p_cost": {"data_type": "cost_curve", "cost_curve_type": "polynomial", "values": {"0": 0.0, "1": 5.0, "2": 0.0}}, "startup_cost": 0.0, "shutdown_cost": 0.0}, "2": {"bus": "2", "pg": 270.0000020901085, "qg": 0.0, "vg": 1.0, "mbase": 100.0, "in_service": true, "p_min": 0.0, "p_max": 2000.0, "q_min": -1000.0, "q_max": 1000.0, "generator_type": "thermal", "p_cost": {"data_type": "cost_curve", "cost_curve_type": "polynomial", "values": {"0": 0.0, "1": 1.2, "2": 0.0}}, "startup_cost": 0.0, "shutdown_cost": 0.0}}, "branch": {"1": {"from_bus": "1", "to_bus": "3", "resistance": 0.065, "reactance": 0.62, "charging_susceptance": 0.45, "branch_type": "line", "rating_long_term": 9000.0, "rating_short_term": 9000.0, "rating_emergency": 9000.0, "in_service": true, "angle_diff_min": -30.0, "angle_diff_max": 30.0, "pf": 44.999999003297184, "qf": null, "pt": null, "qt": null}, "3": {"from_bus": "1", "to_bus": "2", "resistance": 0.042, "reactance": 0.9, "charging_susceptance": 0.3, "branch_type": "line", "rating_long_term": 110.00000000000001, "rating_short_term": 9000.0, "rating_emergency": 9000.0, "in_service": true, "angle_diff_min": -30.0, "angle_diff_max": 30.0, "pf": -110.00000000000001, "qf": null, "pt": null, "qt": null}}, "dc_branch": {"2": {"from_bus": "3", "to_bus": "2", "rating_long_term": 50.0, "rating_short_term": 50.0, "rating_emergency": 50.0, "in_service": true, "loss_factor": 0.1, "pf": -50.0, "pt": 50.0}}}, "system": {"model_name": "hvdc_test_case3", "baseMVA": 100.0, "reference_bus": "1", "reference_bus_angle": 0.0, "total_cost": 548.9999920575879}}